Version 4
SHEET 1 4260 2564
WIRE 2144 -96 2096 -96
WIRE 2256 -96 2208 -96
WIRE 3264 -96 3232 -96
WIRE 3376 -96 3344 -96
WIRE 800 -64 608 -64
WIRE 896 -64 864 -64
WIRE 1552 -64 1360 -64
WIRE 1648 -64 1616 -64
WIRE 48 -48 -144 -48
WIRE 144 -48 112 -48
WIRE 3264 0 3232 0
WIRE 3376 0 3376 -96
WIRE 3376 0 3344 0
WIRE 2096 16 2096 -96
WIRE 2144 16 2096 16
WIRE 2256 16 2256 -96
WIRE 2256 16 2224 16
WIRE 784 32 752 32
WIRE 896 32 896 -64
WIRE 896 32 864 32
WIRE 1536 32 1504 32
WIRE 1648 32 1648 -64
WIRE 1648 32 1616 32
WIRE 32 48 0 48
WIRE 144 48 144 -48
WIRE 144 48 112 48
WIRE 3264 96 3232 96
WIRE 3376 96 3376 0
WIRE 3376 96 3344 96
WIRE 816 144 816 128
WIRE 1568 144 1568 128
WIRE 2192 144 2192 128
WIRE 64 160 64 144
WIRE 480 160 448 160
WIRE 608 160 608 -64
WIRE 608 160 560 160
WIRE 656 160 608 160
WIRE 752 160 752 32
WIRE 752 160 720 160
WIRE 784 160 752 160
WIRE 1232 160 1200 160
WIRE 1360 160 1360 -64
WIRE 1360 160 1312 160
WIRE 1408 160 1360 160
WIRE 1504 160 1504 32
WIRE 1504 160 1472 160
WIRE 1536 160 1504 160
WIRE 1984 160 1952 160
WIRE 2096 160 2096 16
WIRE 2096 160 2064 160
WIRE 2160 160 2096 160
WIRE -272 176 -304 176
WIRE -144 176 -144 -48
WIRE -144 176 -192 176
WIRE -96 176 -144 176
WIRE 0 176 0 48
WIRE 0 176 -32 176
WIRE 32 176 0 176
WIRE 896 176 896 32
WIRE 896 176 848 176
WIRE 928 176 896 176
WIRE 1648 176 1648 32
WIRE 1648 176 1600 176
WIRE 1680 176 1648 176
WIRE 2256 176 2256 16
WIRE 2256 176 2224 176
WIRE 2304 176 2256 176
WIRE 144 192 144 48
WIRE 144 192 96 192
WIRE 176 192 144 192
WIRE 784 192 752 192
WIRE 1536 192 1504 192
WIRE 2160 192 2128 192
WIRE 3264 192 3232 192
WIRE 3376 192 3376 96
WIRE 3376 192 3344 192
WIRE 32 208 0 208
WIRE 608 208 608 160
WIRE 1360 208 1360 160
WIRE -144 224 -144 176
WIRE 752 224 752 192
WIRE 816 224 816 208
WIRE 1504 224 1504 192
WIRE 1568 224 1568 208
WIRE 2128 224 2128 192
WIRE 2192 224 2192 208
WIRE 0 240 0 208
WIRE 64 240 64 224
WIRE 3264 288 3232 288
WIRE 3376 288 3376 192
WIRE 3376 288 3344 288
WIRE 608 320 608 288
WIRE 1360 320 1360 288
WIRE -144 336 -144 304
WIRE -1216 368 -1216 336
WIRE -1120 368 -1120 336
WIRE -1024 368 -1024 336
WIRE 3776 368 3776 352
WIRE 800 384 608 384
WIRE 896 384 864 384
WIRE 2144 384 2096 384
WIRE 2256 384 2224 384
WIRE 3264 384 3232 384
WIRE 3376 384 3376 288
WIRE 3376 384 3344 384
WIRE 3472 384 3376 384
WIRE 3744 384 3472 384
WIRE 48 400 -144 400
WIRE 144 400 112 400
WIRE 3824 400 3808 400
WIRE 3856 400 3824 400
WIRE 3712 416 3552 416
WIRE 3744 416 3712 416
WIRE 3472 432 3472 384
WIRE 3552 464 3552 416
WIRE 3776 464 3776 432
WIRE -1216 480 -1216 448
WIRE -1120 480 -1120 448
WIRE -1024 480 -1024 448
WIRE 784 480 752 480
WIRE 896 480 896 384
WIRE 896 480 864 480
WIRE 3264 480 3232 480
WIRE 3376 480 3376 384
WIRE 3376 480 3344 480
WIRE 32 496 0 496
WIRE 144 496 144 400
WIRE 144 496 112 496
WIRE 2096 496 2096 384
WIRE 2144 496 2096 496
WIRE 2256 496 2256 384
WIRE 2256 496 2208 496
WIRE 3472 528 3472 512
WIRE 3552 560 3552 528
WIRE 3712 560 3712 416
WIRE 3728 560 3712 560
WIRE 3824 560 3824 400
WIRE 3824 560 3808 560
WIRE 3264 576 3232 576
WIRE 3376 576 3376 480
WIRE 3376 576 3344 576
WIRE 816 592 816 576
WIRE 64 608 64 592
WIRE 480 608 448 608
WIRE 608 608 608 384
WIRE 608 608 560 608
WIRE 656 608 608 608
WIRE 752 608 752 480
WIRE 752 608 720 608
WIRE 784 608 752 608
WIRE 3712 608 3712 560
WIRE -272 624 -304 624
WIRE -144 624 -144 400
WIRE -144 624 -192 624
WIRE -96 624 -144 624
WIRE 0 624 0 496
WIRE 0 624 -32 624
WIRE 32 624 0 624
WIRE 896 624 896 480
WIRE 896 624 848 624
WIRE 928 624 896 624
WIRE 2192 624 2192 608
WIRE -1456 640 -1456 608
WIRE -1360 640 -1360 608
WIRE -1264 640 -1264 608
WIRE -1168 640 -1168 608
WIRE -1072 640 -1072 608
WIRE -976 640 -976 608
WIRE -880 640 -880 608
WIRE -784 640 -784 608
WIRE 144 640 144 496
WIRE 144 640 96 640
WIRE 176 640 144 640
WIRE 784 640 752 640
WIRE 2000 640 1952 640
WIRE 2096 640 2096 496
WIRE 2096 640 2064 640
WIRE 2160 640 2096 640
WIRE 32 656 0 656
WIRE 608 656 608 608
WIRE 2256 656 2256 496
WIRE 2256 656 2224 656
WIRE 2304 656 2256 656
WIRE -144 672 -144 624
WIRE 752 672 752 640
WIRE 816 672 816 656
WIRE 2160 672 2128 672
WIRE 3440 672 3232 672
WIRE 3552 672 3552 640
WIRE 3552 672 3520 672
WIRE 3664 672 3552 672
WIRE 0 688 0 656
WIRE 64 688 64 672
WIRE 2128 704 2128 672
WIRE 2192 704 2192 688
WIRE 3712 736 3712 704
WIRE -1456 752 -1456 720
WIRE -1360 752 -1360 720
WIRE -1264 752 -1264 720
WIRE -1168 752 -1168 720
WIRE -1072 752 -1072 720
WIRE -976 752 -976 720
WIRE -880 752 -880 720
WIRE -784 752 -784 720
WIRE 608 768 608 736
WIRE -144 784 -144 752
WIRE -144 944 -176 944
WIRE -32 944 -64 944
WIRE 608 960 576 960
WIRE 720 960 688 960
WIRE 1360 960 1328 960
WIRE 1472 960 1440 960
WIRE 2112 960 2080 960
WIRE 2224 960 2192 960
WIRE -112 1072 -112 1056
WIRE -272 1088 -304 1088
WIRE -176 1088 -176 944
WIRE -176 1088 -192 1088
WIRE -144 1088 -176 1088
WIRE 640 1088 640 1072
WIRE 1392 1088 1392 1072
WIRE 2144 1088 2144 1072
WIRE -32 1104 -32 944
WIRE -32 1104 -80 1104
WIRE 64 1104 -32 1104
WIRE 480 1104 448 1104
WIRE 576 1104 576 960
WIRE 576 1104 560 1104
WIRE 608 1104 576 1104
WIRE 1232 1104 1200 1104
WIRE 1328 1104 1328 960
WIRE 1328 1104 1312 1104
WIRE 1360 1104 1328 1104
WIRE 1984 1104 1952 1104
WIRE 2080 1104 2080 960
WIRE 2080 1104 2064 1104
WIRE 2112 1104 2080 1104
WIRE -144 1120 -176 1120
WIRE 176 1120 144 1120
WIRE 720 1120 720 960
WIRE 720 1120 672 1120
WIRE 816 1120 720 1120
WIRE 1472 1120 1472 960
WIRE 1472 1120 1424 1120
WIRE 1568 1120 1472 1120
WIRE 2224 1120 2224 960
WIRE 2224 1120 2176 1120
WIRE 2320 1120 2224 1120
WIRE 64 1136 32 1136
WIRE 608 1136 576 1136
WIRE 928 1136 896 1136
WIRE 1360 1136 1328 1136
WIRE 1680 1136 1648 1136
WIRE 2112 1136 2080 1136
WIRE 2432 1136 2400 1136
WIRE -176 1152 -176 1120
WIRE -112 1152 -112 1136
WIRE 816 1152 784 1152
WIRE 1568 1152 1536 1152
WIRE 2320 1152 2288 1152
WIRE 576 1168 576 1136
WIRE 640 1168 640 1152
WIRE 1328 1168 1328 1136
WIRE 1392 1168 1392 1152
WIRE 2080 1168 2080 1136
WIRE 2144 1168 2144 1152
WIRE -144 1280 -176 1280
WIRE -32 1280 -64 1280
WIRE 608 1296 576 1296
WIRE 720 1296 688 1296
WIRE 2112 1296 2080 1296
WIRE 2224 1296 2192 1296
WIRE -112 1408 -112 1392
WIRE -272 1424 -304 1424
WIRE -176 1424 -176 1280
WIRE -176 1424 -192 1424
WIRE -144 1424 -176 1424
WIRE 640 1424 640 1408
WIRE 2144 1424 2144 1408
WIRE -32 1440 -32 1280
WIRE -32 1440 -80 1440
WIRE 64 1440 -32 1440
WIRE 480 1440 448 1440
WIRE 576 1440 576 1296
WIRE 576 1440 560 1440
WIRE 608 1440 576 1440
WIRE 1984 1440 1952 1440
WIRE 2080 1440 2080 1296
WIRE 2080 1440 2064 1440
WIRE 2112 1440 2080 1440
WIRE -144 1456 -176 1456
WIRE 176 1456 144 1456
WIRE 720 1456 720 1296
WIRE 720 1456 672 1456
WIRE 816 1456 720 1456
WIRE 2224 1456 2224 1296
WIRE 2224 1456 2176 1456
WIRE 2320 1456 2224 1456
WIRE 64 1472 32 1472
WIRE 608 1472 576 1472
WIRE 928 1472 896 1472
WIRE 2112 1472 2080 1472
WIRE 2432 1472 2400 1472
WIRE -176 1488 -176 1456
WIRE -112 1488 -112 1472
WIRE 816 1488 784 1488
WIRE 2320 1488 2288 1488
WIRE 576 1504 576 1472
WIRE 640 1504 640 1488
WIRE 2080 1504 2080 1472
WIRE 2144 1504 2144 1488
WIRE 848 1632 848 1616
WIRE 1600 1632 1600 1616
WIRE 2368 1632 2368 1616
WIRE 96 1648 96 1632
WIRE 544 1648 448 1648
WIRE 816 1648 544 1648
WIRE 1296 1648 1200 1648
WIRE 1568 1648 1296 1648
WIRE 2064 1648 1968 1648
WIRE 2336 1648 2064 1648
WIRE -208 1664 -304 1664
WIRE 64 1664 -208 1664
WIRE 896 1664 880 1664
WIRE 928 1664 896 1664
WIRE 1648 1664 1632 1664
WIRE 1680 1664 1648 1664
WIRE 2416 1664 2400 1664
WIRE 2448 1664 2416 1664
WIRE 144 1680 128 1680
WIRE 176 1680 144 1680
WIRE 784 1680 624 1680
WIRE 816 1680 784 1680
WIRE 1536 1680 1376 1680
WIRE 1568 1680 1536 1680
WIRE 2304 1680 2144 1680
WIRE 2336 1680 2304 1680
WIRE 32 1696 -128 1696
WIRE 64 1696 32 1696
WIRE 544 1696 544 1648
WIRE 1296 1696 1296 1648
WIRE 2064 1696 2064 1648
WIRE -208 1712 -208 1664
WIRE 624 1728 624 1680
WIRE 848 1728 848 1696
WIRE 1376 1728 1376 1680
WIRE 1600 1728 1600 1696
WIRE 2144 1728 2144 1680
WIRE 2368 1728 2368 1696
WIRE -128 1744 -128 1696
WIRE 96 1744 96 1712
WIRE 544 1792 544 1776
WIRE 1296 1792 1296 1776
WIRE 2064 1792 2064 1776
WIRE -208 1808 -208 1792
WIRE 624 1824 624 1792
WIRE 784 1824 784 1680
WIRE 800 1824 784 1824
WIRE 896 1824 896 1664
WIRE 896 1824 880 1824
WIRE 1376 1824 1376 1792
WIRE 1536 1824 1536 1680
WIRE 1552 1824 1536 1824
WIRE 1648 1824 1648 1664
WIRE 1648 1824 1632 1824
WIRE 2144 1824 2144 1792
WIRE 2304 1824 2304 1680
WIRE 2320 1824 2304 1824
WIRE 2416 1824 2416 1664
WIRE 2416 1824 2400 1824
WIRE -128 1840 -128 1808
WIRE 32 1840 32 1696
WIRE 48 1840 32 1840
WIRE 144 1840 144 1680
WIRE 144 1840 128 1840
WIRE 784 1872 784 1824
WIRE 1536 1872 1536 1824
WIRE 2304 1872 2304 1824
WIRE 32 1888 32 1840
WIRE 512 1936 448 1936
WIRE 624 1936 624 1904
WIRE 624 1936 592 1936
WIRE 736 1936 624 1936
WIRE 1264 1936 1200 1936
WIRE 1376 1936 1376 1904
WIRE 1376 1936 1344 1936
WIRE 1488 1936 1376 1936
WIRE 2032 1936 1968 1936
WIRE 2144 1936 2144 1904
WIRE 2144 1936 2112 1936
WIRE 2256 1936 2144 1936
WIRE -240 1952 -304 1952
WIRE -128 1952 -128 1920
WIRE -128 1952 -160 1952
WIRE -16 1952 -128 1952
WIRE 784 2000 784 1968
WIRE 1536 2000 1536 1968
WIRE 2304 2000 2304 1968
WIRE 32 2016 32 1984
WIRE 848 2160 848 2144
WIRE 2368 2160 2368 2144
WIRE 96 2176 96 2160
WIRE 544 2176 448 2176
WIRE 816 2176 544 2176
WIRE 2064 2176 1968 2176
WIRE 2336 2176 2064 2176
WIRE -208 2192 -304 2192
WIRE 64 2192 -208 2192
WIRE 896 2192 880 2192
WIRE 928 2192 896 2192
WIRE 2416 2192 2400 2192
WIRE 2448 2192 2416 2192
WIRE 144 2208 128 2208
WIRE 176 2208 144 2208
WIRE 784 2208 624 2208
WIRE 816 2208 784 2208
WIRE 2304 2208 2144 2208
WIRE 2336 2208 2304 2208
WIRE 32 2224 -128 2224
WIRE 64 2224 32 2224
WIRE 544 2224 544 2176
WIRE 2064 2224 2064 2176
WIRE -208 2240 -208 2192
WIRE 624 2256 624 2208
WIRE 848 2256 848 2224
WIRE 2144 2256 2144 2208
WIRE 2368 2256 2368 2224
WIRE -128 2272 -128 2224
WIRE 96 2272 96 2240
WIRE 544 2320 544 2304
WIRE 2064 2320 2064 2304
WIRE -208 2336 -208 2320
WIRE 624 2352 624 2320
WIRE 784 2352 784 2208
WIRE 800 2352 784 2352
WIRE 896 2352 896 2192
WIRE 896 2352 880 2352
WIRE 2144 2352 2144 2320
WIRE 2304 2352 2304 2208
WIRE 2320 2352 2304 2352
WIRE 2416 2352 2416 2192
WIRE 2416 2352 2400 2352
WIRE -128 2368 -128 2336
WIRE 32 2368 32 2224
WIRE 48 2368 32 2368
WIRE 144 2368 144 2208
WIRE 144 2368 128 2368
WIRE 784 2400 784 2352
WIRE 2304 2400 2304 2352
WIRE 32 2416 32 2368
WIRE 512 2464 448 2464
WIRE 624 2464 624 2432
WIRE 624 2464 592 2464
WIRE 736 2464 624 2464
WIRE 2032 2464 1968 2464
WIRE 2144 2464 2144 2432
WIRE 2144 2464 2112 2464
WIRE 2256 2464 2144 2464
WIRE -240 2480 -304 2480
WIRE -128 2480 -128 2448
WIRE -128 2480 -160 2480
WIRE -16 2480 -128 2480
WIRE 784 2528 784 2496
WIRE 2304 2528 2304 2496
WIRE 32 2544 32 2512
FLAG -144 336 0
FLAG 0 240 0
FLAG 64 144 Vdd
FLAG 64 240 Vee
FLAG -1120 480 0
FLAG -1216 480 0
FLAG -1120 336 Vdd
FLAG -1216 336 Vee
FLAG -1024 480 0
FLAG 176 192 Vout_1_1
FLAG -1024 336 Vin
FLAG -304 176 Vin
FLAG -144 784 0
FLAG 0 688 0
FLAG 64 592 Vdd
FLAG 64 688 Vee
FLAG 176 640 Vout_2_1
FLAG -304 624 Vin
FLAG 608 320 0
FLAG 752 224 0
FLAG 816 128 Vdd
FLAG 816 224 Vee
FLAG 928 176 Vout_3_1
FLAG 448 160 Vin
FLAG 608 768 0
FLAG 752 672 0
FLAG 816 576 Vdd
FLAG 816 672 Vee
FLAG 928 624 Vout_4_1
FLAG 448 608 Vin
FLAG 1360 320 0
FLAG 1504 224 0
FLAG 1568 128 Vdd
FLAG 1568 224 Vee
FLAG 1680 176 Vout_5_1
FLAG 1200 160 Vin
FLAG -176 1152 0
FLAG -112 1056 Vdd
FLAG -112 1152 Vee
FLAG -304 1088 Vout_1_1
FLAG 32 1136 Vout_1_1
FLAG 176 1120 Vout_1_2
FLAG -176 1488 0
FLAG -112 1392 Vdd
FLAG -112 1488 Vee
FLAG -304 1424 Vout_2_1
FLAG 32 1472 Vout_2_1
FLAG 176 1456 Vout_2_2
FLAG 576 1168 0
FLAG 640 1072 Vdd
FLAG 640 1168 Vee
FLAG 448 1104 Vout_3_1
FLAG 784 1152 Vout_3_1
FLAG 928 1136 Vout_3_2
FLAG 576 1504 0
FLAG 640 1408 Vdd
FLAG 640 1504 Vee
FLAG 448 1440 Vout_4_1
FLAG 784 1488 Vout_4_1
FLAG 928 1472 Vout_4_2
FLAG 1328 1168 0
FLAG 1392 1072 Vdd
FLAG 1392 1168 Vee
FLAG 1200 1104 Vout_5_1
FLAG 1536 1152 Vout_5_1
FLAG 1680 1136 Vout_5_2
FLAG 2080 1168 0
FLAG 2144 1072 Vdd
FLAG 2144 1168 Vee
FLAG 1952 1104 Vout_6_1
FLAG 2288 1152 Vout_6_1
FLAG 2432 1136 Vout_6_2
FLAG 2080 1504 0
FLAG 2144 1408 Vdd
FLAG 2144 1504 Vee
FLAG 1952 1440 Vout_7_1
FLAG 2288 1488 Vout_7_1
FLAG 2432 1472 Vout_7_2
FLAG 2192 128 Vdd
FLAG 2192 224 Vee
FLAG 2128 224 0
FLAG 1952 160 Vin
FLAG 2304 176 Vout_6_1
FLAG 2192 608 Vdd
FLAG 2192 704 Vee
FLAG 2128 704 0
FLAG 1952 640 Vin
FLAG 2304 656 Vout_7_1
FLAG 3232 0 Vout_1_3
FLAG 3232 96 Vout_2_3
FLAG 3232 192 Vout_3_3
FLAG 3232 288 Vout_4_3
FLAG 3232 384 Vout_5_3
FLAG 3232 480 Vout_6_3
FLAG 3232 576 Vout_7_3
FLAG 3232 -96 Vin
FLAG 32 2016 0
FLAG 96 1744 Vdd
FLAG 96 1632 Vee
FLAG -208 1808 0
FLAG -304 1664 Vout_1_2
FLAG -304 1952 Vctrl_1
FLAG 176 1680 Vout_1_3
FLAG 32 2544 0
FLAG 96 2272 Vdd
FLAG 96 2160 Vee
FLAG -208 2336 0
FLAG -304 2192 Vout_2_2
FLAG -304 2480 Vctrl_2
FLAG 176 2208 Vout_2_3
FLAG 784 2000 0
FLAG 848 1728 Vdd
FLAG 848 1616 Vee
FLAG 544 1792 0
FLAG 448 1648 Vout_3_2
FLAG 448 1936 Vctrl_3
FLAG 928 1664 Vout_3_3
FLAG 784 2528 0
FLAG 848 2256 Vdd
FLAG 848 2144 Vee
FLAG 544 2320 0
FLAG 448 2176 Vout_4_2
FLAG 448 2464 Vctrl_4
FLAG 928 2192 Vout_4_3
FLAG 1536 2000 0
FLAG 1600 1728 Vdd
FLAG 1600 1616 Vee
FLAG 1296 1792 0
FLAG 1200 1648 Vout_5_2
FLAG 1200 1936 Vctrl_5
FLAG 1680 1664 Vout_5_3
FLAG 2304 2000 0
FLAG 2368 1728 Vdd
FLAG 2368 1616 Vee
FLAG 2064 1792 0
FLAG 1968 1648 Vout_6_2
FLAG 1968 1936 Vctrl_6
FLAG 2448 1664 Vout_6_3
FLAG 2304 2528 0
FLAG 2368 2256 Vdd
FLAG 2368 2144 Vee
FLAG 2064 2320 0
FLAG 1968 2176 Vout_7_2
FLAG 1968 2464 Vctrl_7
FLAG 2448 2192 Vout_7_3
FLAG -1456 752 0
FLAG -1456 608 Vctrl_1
FLAG -1360 752 0
FLAG -1360 608 Vctrl_2
FLAG -1264 752 0
FLAG -1264 608 Vctrl_3
FLAG -1168 752 0
FLAG -1168 608 Vctrl_4
FLAG -1072 752 0
FLAG -1072 608 Vctrl_5
FLAG -976 752 0
FLAG -976 608 Vctrl_6
FLAG -880 752 0
FLAG -880 608 Vctrl_7
FLAG -784 752 0
FLAG -784 608 Vctrl
FLAG 3712 736 0
FLAG 3776 464 Vdd
FLAG 3776 352 Vee
FLAG 3472 528 0
FLAG 3232 672 Vctrl
FLAG 3856 400 Vout
SYMBOL EXTRA\\AudioOpamp\\TI\\TL072_TI 64 192 R0
SYMATTR InstName U1
SYMBOL res -176 160 R90
WINDOW 0 0 56 VBottom 2
WINDOW 3 32 56 VTop 2
SYMATTR InstName R1
SYMATTR Value 67472
SYMBOL res 128 32 R90
WINDOW 0 0 56 VBottom 2
WINDOW 3 32 56 VTop 2
SYMATTR InstName R2
SYMATTR Value 8434
SYMBOL cap 112 -64 R90
WINDOW 0 0 32 VBottom 2
WINDOW 3 32 32 VTop 2
SYMATTR InstName C1
SYMATTR Value 220nF
SYMBOL cap -32 160 R90
WINDOW 0 0 32 VBottom 2
WINDOW 3 32 32 VTop 2
SYMATTR InstName C2
SYMATTR Value 220nF
SYMBOL res -160 208 R0
SYMATTR InstName R3
SYMATTR Value 6910
SYMBOL voltage -1216 352 R0
SYMATTR InstName V1
SYMATTR Value -15
SYMBOL voltage -1120 352 R0
SYMATTR InstName V2
SYMATTR Value 15
SYMBOL voltage -1024 352 R0
WINDOW 123 24 124 Left 2
WINDOW 39 0 0 Left 0
SYMATTR Value2 AC 1 0
SYMATTR InstName V3
SYMATTR Value SINE(0 1 100)
SYMBOL EXTRA\\AudioOpamp\\TI\\TL072_TI 64 640 R0
SYMATTR InstName U2
SYMBOL res -176 608 R90
WINDOW 0 0 56 VBottom 2
WINDOW 3 32 56 VTop 2
SYMATTR InstName R4
SYMATTR Value 37016
SYMBOL res 128 480 R90
WINDOW 0 0 56 VBottom 2
WINDOW 3 32 56 VTop 2
SYMATTR InstName R5
SYMATTR Value 4627
SYMBOL cap 112 384 R90
WINDOW 0 0 32 VBottom 2
WINDOW 3 32 32 VTop 2
SYMATTR InstName C3
SYMATTR Value 100nF
SYMBOL cap -32 608 R90
WINDOW 0 0 32 VBottom 2
WINDOW 3 32 32 VTop 2
SYMATTR InstName C4
SYMATTR Value 100nF
SYMBOL res -160 656 R0
SYMATTR InstName R6
SYMATTR Value 3791
SYMBOL EXTRA\\AudioOpamp\\TI\\TL072_TI 816 176 R0
SYMATTR InstName U3
SYMBOL res 576 144 R90
WINDOW 0 0 56 VBottom 2
WINDOW 3 32 56 VTop 2
SYMATTR InstName R7
SYMATTR Value 19610
SYMBOL res 880 16 R90
WINDOW 0 0 56 VBottom 2
WINDOW 3 32 56 VTop 2
SYMATTR InstName R8
SYMATTR Value 2451
SYMBOL cap 864 -80 R90
WINDOW 0 0 32 VBottom 2
WINDOW 3 32 32 VTop 2
SYMATTR InstName C5
SYMATTR Value 47nF
SYMBOL cap 720 144 R90
WINDOW 0 0 32 VBottom 2
WINDOW 3 32 32 VTop 2
SYMATTR InstName C6
SYMATTR Value 47nF
SYMBOL res 592 192 R0
SYMATTR InstName R9
SYMATTR Value 2008
SYMBOL EXTRA\\AudioOpamp\\TI\\TL072_TI 816 624 R0
SYMATTR InstName U4
SYMBOL res 576 592 R90
WINDOW 0 0 56 VBottom 2
WINDOW 3 32 56 VTop 2
SYMATTR InstName R10
SYMATTR Value 10506
SYMBOL res 880 464 R90
WINDOW 0 0 56 VBottom 2
WINDOW 3 32 56 VTop 2
SYMATTR InstName R11
SYMATTR Value 1313
SYMBOL cap 864 368 R90
WINDOW 0 0 32 VBottom 2
WINDOW 3 32 32 VTop 2
SYMATTR InstName C7
SYMATTR Value 22nF
SYMBOL cap 720 592 R90
WINDOW 0 0 32 VBottom 2
WINDOW 3 32 32 VTop 2
SYMATTR InstName C8
SYMATTR Value 22nF
SYMBOL res 592 640 R0
SYMATTR InstName R12
SYMATTR Value 1076
SYMBOL EXTRA\\AudioOpamp\\TI\\TL072_TI 1568 176 R0
SYMATTR InstName U5
SYMBOL res 1328 144 R90
WINDOW 0 0 56 VBottom 2
WINDOW 3 32 56 VTop 2
SYMATTR InstName R13
SYMATTR Value 26265
SYMBOL res 1632 16 R90
WINDOW 0 0 56 VBottom 2
WINDOW 3 32 56 VTop 2
SYMATTR InstName R14
SYMATTR Value 3283
SYMBOL cap 1616 -80 R90
WINDOW 0 0 32 VBottom 2
WINDOW 3 32 32 VTop 2
SYMATTR InstName C9
SYMATTR Value 2.2nF
SYMBOL cap 1472 144 R90
WINDOW 0 0 32 VBottom 2
WINDOW 3 32 32 VTop 2
SYMATTR InstName C10
SYMATTR Value 2.2nF
SYMBOL res 1344 192 R0
SYMATTR InstName R15
SYMATTR Value 2690
SYMBOL Pot&Sw\\spdt 96 1120 R180
SYMATTR InstName U8
SYMBOL EXTRA\\AudioOpamp\\TI\\TL072_TI -112 1104 R0
SYMATTR InstName U9
SYMBOL res -48 928 R90
WINDOW 0 0 56 VBottom 2
WINDOW 3 32 56 VTop 2
SYMATTR InstName R18
SYMATTR Value 10k
SYMBOL res -176 1072 R90
WINDOW 0 0 56 VBottom 2
WINDOW 3 32 56 VTop 2
SYMATTR InstName R19
SYMATTR Value 10k
SYMBOL Pot&Sw\\spdt 96 1456 R180
SYMATTR InstName U10
SYMBOL EXTRA\\AudioOpamp\\TI\\TL072_TI -112 1440 R0
SYMATTR InstName U11
SYMBOL res -48 1264 R90
WINDOW 0 0 56 VBottom 2
WINDOW 3 32 56 VTop 2
SYMATTR InstName R20
SYMATTR Value 10k
SYMBOL res -176 1408 R90
WINDOW 0 0 56 VBottom 2
WINDOW 3 32 56 VTop 2
SYMATTR InstName R21
SYMATTR Value 10k
SYMBOL Pot&Sw\\spdt 848 1136 R180
SYMATTR InstName U12
SYMBOL EXTRA\\AudioOpamp\\TI\\TL072_TI 640 1120 R0
SYMATTR InstName U13
SYMBOL res 704 944 R90
WINDOW 0 0 56 VBottom 2
WINDOW 3 32 56 VTop 2
SYMATTR InstName R22
SYMATTR Value 10k
SYMBOL res 576 1088 R90
WINDOW 0 0 56 VBottom 2
WINDOW 3 32 56 VTop 2
SYMATTR InstName R23
SYMATTR Value 10k
SYMBOL Pot&Sw\\spdt 848 1472 R180
SYMATTR InstName U14
SYMBOL EXTRA\\AudioOpamp\\TI\\TL072_TI 640 1456 R0
SYMATTR InstName U15
SYMBOL res 704 1280 R90
WINDOW 0 0 56 VBottom 2
WINDOW 3 32 56 VTop 2
SYMATTR InstName R24
SYMATTR Value 10k
SYMBOL res 576 1424 R90
WINDOW 0 0 56 VBottom 2
WINDOW 3 32 56 VTop 2
SYMATTR InstName R25
SYMATTR Value 10k
SYMBOL Pot&Sw\\spdt 1600 1136 R180
SYMATTR InstName U16
SYMBOL EXTRA\\AudioOpamp\\TI\\TL072_TI 1392 1120 R0
SYMATTR InstName U17
SYMBOL res 1456 944 R90
WINDOW 0 0 56 VBottom 2
WINDOW 3 32 56 VTop 2
SYMATTR InstName R26
SYMATTR Value 10k
SYMBOL res 1328 1088 R90
WINDOW 0 0 56 VBottom 2
WINDOW 3 32 56 VTop 2
SYMATTR InstName R27
SYMATTR Value 10k
SYMBOL Pot&Sw\\spdt 2352 1136 R180
SYMATTR InstName U18
SYMBOL EXTRA\\AudioOpamp\\TI\\TL072_TI 2144 1120 R0
SYMATTR InstName U19
SYMBOL res 2208 944 R90
WINDOW 0 0 56 VBottom 2
WINDOW 3 32 56 VTop 2
SYMATTR InstName R28
SYMATTR Value 10k
SYMBOL res 2080 1088 R90
WINDOW 0 0 56 VBottom 2
WINDOW 3 32 56 VTop 2
SYMATTR InstName R29
SYMATTR Value 10k
SYMBOL Pot&Sw\\spdt 2352 1472 R180
SYMATTR InstName U20
SYMBOL EXTRA\\AudioOpamp\\TI\\TL072_TI 2144 1456 R0
SYMATTR InstName U21
SYMBOL res 2208 1280 R90
WINDOW 0 0 56 VBottom 2
WINDOW 3 32 56 VTop 2
SYMATTR InstName R30
SYMATTR Value 10k
SYMBOL res 2080 1424 R90
WINDOW 0 0 56 VBottom 2
WINDOW 3 32 56 VTop 2
SYMATTR InstName R31
SYMATTR Value 10k
SYMBOL EXTRA\\AudioOpamp\\TI\\TL072_TI 2192 176 R0
SYMATTR InstName U6
SYMBOL cap 2208 -112 R90
WINDOW 0 0 32 VBottom 2
WINDOW 3 32 32 VTop 2
SYMATTR InstName C11
SYMATTR Value 220nF
SYMBOL res 2240 0 R90
WINDOW 0 0 56 VBottom 2
WINDOW 3 32 56 VTop 2
SYMATTR InstName R16
SYMATTR Value 32883
SYMBOL res 2080 144 R90
WINDOW 0 0 56 VBottom 2
WINDOW 3 32 56 VTop 2
SYMATTR InstName R17
SYMATTR Value 138k
SYMBOL EXTRA\\AudioOpamp\\TI\\TL072_TI 2192 656 R0
SYMATTR InstName U7
SYMBOL cap 2208 480 R90
WINDOW 0 0 32 VBottom 2
WINDOW 3 32 32 VTop 2
SYMATTR InstName C12
SYMATTR Value 20nF
SYMBOL res 2240 368 R90
WINDOW 0 0 56 VBottom 2
WINDOW 3 32 56 VTop 2
SYMATTR InstName R32
SYMATTR Value 175
SYMBOL cap 2064 624 R90
WINDOW 0 0 32 VBottom 2
WINDOW 3 32 32 VTop 2
SYMATTR InstName C13
SYMATTR Value 1.2nF
SYMBOL res 3360 -16 R90
WINDOW 0 0 56 VBottom 2
WINDOW 3 32 56 VTop 2
SYMATTR InstName R33
SYMATTR Value 100k
SYMBOL res 3360 80 R90
WINDOW 0 0 56 VBottom 2
WINDOW 3 32 56 VTop 2
SYMATTR InstName R34
SYMATTR Value 100k
SYMBOL res 3360 176 R90
WINDOW 0 0 56 VBottom 2
WINDOW 3 32 56 VTop 2
SYMATTR InstName R35
SYMATTR Value 100k
SYMBOL res 3360 272 R90
WINDOW 0 0 56 VBottom 2
WINDOW 3 32 56 VTop 2
SYMATTR InstName R36
SYMATTR Value 100k
SYMBOL res 3360 368 R90
WINDOW 0 0 56 VBottom 2
WINDOW 3 32 56 VTop 2
SYMATTR InstName R37
SYMATTR Value 100k
SYMBOL res 3360 464 R90
WINDOW 0 0 56 VBottom 2
WINDOW 3 32 56 VTop 2
SYMATTR InstName R38
SYMATTR Value 100k
SYMBOL res 3360 560 R90
WINDOW 0 0 56 VBottom 2
WINDOW 3 32 56 VTop 2
SYMATTR InstName R39
SYMATTR Value 100k
SYMBOL res 3360 -112 R90
WINDOW 0 0 56 VBottom 2
WINDOW 3 32 56 VTop 2
SYMATTR InstName R41
SYMATTR Value 100k
SYMBOL njf -16 1888 R0
SYMATTR InstName J1
SYMATTR Value BF245C
SYMBOL res -144 1936 R90
WINDOW 0 0 56 VBottom 2
WINDOW 3 32 56 VTop 2
SYMATTR InstName R43
SYMATTR Value 1Meg
SYMBOL res -144 1824 R0
SYMATTR InstName R44
SYMATTR Value 1Meg
SYMBOL cap -144 1744 R0
SYMATTR InstName C14
SYMATTR Value 10nF
SYMBOL res 144 1824 R90
WINDOW 0 0 56 VBottom 2
WINDOW 3 32 56 VTop 2
SYMATTR InstName R45
SYMATTR Value 5k6
SYMBOL res -192 1808 R180
WINDOW 0 36 76 Left 2
WINDOW 3 36 40 Left 2
SYMATTR InstName R46
SYMATTR Value 30k
SYMBOL EXTRA\\AudioOpamp\\TI\\TL072_TI 96 1680 M180
SYMATTR InstName U23
SYMBOL njf -16 2416 R0
SYMATTR InstName J2
SYMATTR Value BF245C
SYMBOL res -144 2464 R90
WINDOW 0 0 56 VBottom 2
WINDOW 3 32 56 VTop 2
SYMATTR InstName R47
SYMATTR Value 1Meg
SYMBOL res -144 2352 R0
SYMATTR InstName R48
SYMATTR Value 1Meg
SYMBOL cap -144 2272 R0
SYMATTR InstName C15
SYMATTR Value 10nF
SYMBOL res 144 2352 R90
WINDOW 0 0 56 VBottom 2
WINDOW 3 32 56 VTop 2
SYMATTR InstName R49
SYMATTR Value 5k6
SYMBOL res -192 2336 R180
WINDOW 0 36 76 Left 2
WINDOW 3 36 40 Left 2
SYMATTR InstName R50
SYMATTR Value 30k
SYMBOL EXTRA\\AudioOpamp\\TI\\TL072_TI 96 2208 M180
SYMATTR InstName U24
SYMBOL njf 736 1872 R0
SYMATTR InstName J3
SYMATTR Value BF245C
SYMBOL res 608 1920 R90
WINDOW 0 0 56 VBottom 2
WINDOW 3 32 56 VTop 2
SYMATTR InstName R51
SYMATTR Value 1Meg
SYMBOL res 608 1808 R0
SYMATTR InstName R52
SYMATTR Value 1Meg
SYMBOL cap 608 1728 R0
SYMATTR InstName C16
SYMATTR Value 10nF
SYMBOL res 896 1808 R90
WINDOW 0 0 56 VBottom 2
WINDOW 3 32 56 VTop 2
SYMATTR InstName R53
SYMATTR Value 5k6
SYMBOL res 560 1792 R180
WINDOW 0 36 76 Left 2
WINDOW 3 36 40 Left 2
SYMATTR InstName R54
SYMATTR Value 30k
SYMBOL EXTRA\\AudioOpamp\\TI\\TL072_TI 848 1664 M180
SYMATTR InstName U25
SYMBOL njf 736 2400 R0
SYMATTR InstName J4
SYMATTR Value BF245C
SYMBOL res 608 2448 R90
WINDOW 0 0 56 VBottom 2
WINDOW 3 32 56 VTop 2
SYMATTR InstName R55
SYMATTR Value 1Meg
SYMBOL res 608 2336 R0
SYMATTR InstName R56
SYMATTR Value 1Meg
SYMBOL cap 608 2256 R0
SYMATTR InstName C17
SYMATTR Value 10nF
SYMBOL res 896 2336 R90
WINDOW 0 0 56 VBottom 2
WINDOW 3 32 56 VTop 2
SYMATTR InstName R57
SYMATTR Value 5k6
SYMBOL res 560 2320 R180
WINDOW 0 36 76 Left 2
WINDOW 3 36 40 Left 2
SYMATTR InstName R58
SYMATTR Value 30k
SYMBOL EXTRA\\AudioOpamp\\TI\\TL072_TI 848 2192 M180
SYMATTR InstName U26
SYMBOL njf 1488 1872 R0
SYMATTR InstName J5
SYMATTR Value BF245C
SYMBOL res 1360 1920 R90
WINDOW 0 0 56 VBottom 2
WINDOW 3 32 56 VTop 2
SYMATTR InstName R59
SYMATTR Value 1Meg
SYMBOL res 1360 1808 R0
SYMATTR InstName R60
SYMATTR Value 1Meg
SYMBOL cap 1360 1728 R0
SYMATTR InstName C18
SYMATTR Value 10nF
SYMBOL res 1648 1808 R90
WINDOW 0 0 56 VBottom 2
WINDOW 3 32 56 VTop 2
SYMATTR InstName R61
SYMATTR Value 5k6
SYMBOL res 1312 1792 R180
WINDOW 0 36 76 Left 2
WINDOW 3 36 40 Left 2
SYMATTR InstName R62
SYMATTR Value 30k
SYMBOL EXTRA\\AudioOpamp\\TI\\TL072_TI 1600 1664 M180
SYMATTR InstName U27
SYMBOL njf 2256 1872 R0
SYMATTR InstName J6
SYMATTR Value BF245C
SYMBOL res 2128 1920 R90
WINDOW 0 0 56 VBottom 2
WINDOW 3 32 56 VTop 2
SYMATTR InstName R63
SYMATTR Value 1Meg
SYMBOL res 2128 1808 R0
SYMATTR InstName R64
SYMATTR Value 1Meg
SYMBOL cap 2128 1728 R0
SYMATTR InstName C19
SYMATTR Value 10nF
SYMBOL res 2416 1808 R90
WINDOW 0 0 56 VBottom 2
WINDOW 3 32 56 VTop 2
SYMATTR InstName R65
SYMATTR Value 5k6
SYMBOL res 2080 1792 R180
WINDOW 0 36 76 Left 2
WINDOW 3 36 40 Left 2
SYMATTR InstName R66
SYMATTR Value 30k
SYMBOL EXTRA\\AudioOpamp\\TI\\TL072_TI 2368 1664 M180
SYMATTR InstName U28
SYMBOL njf 2256 2400 R0
SYMATTR InstName J7
SYMATTR Value BF245C
SYMBOL res 2128 2448 R90
WINDOW 0 0 56 VBottom 2
WINDOW 3 32 56 VTop 2
SYMATTR InstName R67
SYMATTR Value 1Meg
SYMBOL res 2128 2336 R0
SYMATTR InstName R68
SYMATTR Value 1Meg
SYMBOL cap 2128 2256 R0
SYMATTR InstName C20
SYMATTR Value 10nF
SYMBOL res 2416 2336 R90
WINDOW 0 0 56 VBottom 2
WINDOW 3 32 56 VTop 2
SYMATTR InstName R69
SYMATTR Value 5k6
SYMBOL res 2080 2320 R180
WINDOW 0 36 76 Left 2
WINDOW 3 36 40 Left 2
SYMATTR InstName R70
SYMATTR Value 30k
SYMBOL EXTRA\\AudioOpamp\\TI\\TL072_TI 2368 2192 M180
SYMATTR InstName U29
SYMBOL voltage -1456 624 R0
SYMATTR InstName V4
SYMATTR Value -5
SYMBOL voltage -1360 624 R0
SYMATTR InstName V5
SYMATTR Value -5
SYMBOL voltage -1264 624 R0
SYMATTR InstName V6
SYMATTR Value -5
SYMBOL voltage -1168 624 R0
WINDOW 123 0 0 Left 0
WINDOW 39 0 0 Left 0
SYMATTR InstName V7
SYMATTR Value -5
SYMBOL voltage -1072 624 R0
WINDOW 123 0 0 Left 0
WINDOW 39 0 0 Left 0
SYMATTR InstName V8
SYMATTR Value -5
SYMBOL voltage -976 624 R0
WINDOW 123 0 0 Left 0
WINDOW 39 0 0 Left 0
SYMATTR InstName V9
SYMATTR Value -5
SYMBOL voltage -880 624 R0
WINDOW 123 0 0 Left 0
WINDOW 39 0 0 Left 0
SYMATTR InstName V10
SYMATTR Value -5
SYMBOL voltage -784 624 R0
WINDOW 123 0 0 Left 0
WINDOW 39 0 0 Left 0
SYMATTR InstName V11
SYMATTR Value -5
SYMBOL njf 3664 608 R0
SYMATTR InstName J8
SYMATTR Value BF245C
SYMBOL res 3536 656 R90
WINDOW 0 0 56 VBottom 2
WINDOW 3 32 56 VTop 2
SYMATTR InstName R40
SYMATTR Value 1Meg
SYMBOL res 3536 544 R0
SYMATTR InstName R42
SYMATTR Value 1Meg
SYMBOL cap 3536 464 R0
SYMATTR InstName C21
SYMATTR Value 10nF
SYMBOL res 3824 544 R90
WINDOW 0 0 56 VBottom 2
WINDOW 3 32 56 VTop 2
SYMATTR InstName R71
SYMATTR Value 5k6
SYMBOL EXTRA\\AudioOpamp\\TI\\TL072_TI 3776 400 M180
SYMATTR InstName U22
TEXT -1200 240 Left 2 !.ac dec 100 50 20k
